---- qbsp / ericw-tools v0.18.1 ----
Input file: citydungeon.map
Output file: citydungeon.bsp

---- LoadMapFile ----
         1616 faces
          270 brushes
           72 entities
            9 unique texnames
          260 texinfo

Opened WAD: C:/Users/jonfl/Desktop/QuakeGD/wads/prototype_1_2.wad
Opened WAD: C:/Users/jonfl/Desktop/QuakeGD/wads/rogue.wad
Processing hull 0...
---- Brush_LoadEntity ----
          270 brushes
          115 planes
---- CSGFaces ----
         1616 brushfaces
          819 csgfaces
          831 mergedfaces
---- SolidBSP ----
          693 split nodes
          283 solid leafs
          382 empty leafs
           29 water leafs
            0 detail leafs
            0 detail illusionary leafs
            0 detail fence leafs
            0 illusionary visblocker leafs
         6497 leaffaces
         6434 nodefaces
---- Portalize ----
          411 vis leafs
          411 vis clusters
         1063 vis portals
---- FillOutside ----
          200 outleafs
---- MergeAll ----
          620 mergefaces
---- SolidBSP ----
          424 split nodes
          241 solid leafs
          163 empty leafs
           21 water leafs
            0 detail leafs
            0 detail illusionary leafs
            0 detail fence leafs
            0 illusionary visblocker leafs
         3911 leaffaces
         3833 nodefaces
---- Portalize ----
          184 vis leafs
          184 vis clusters
          481 vis portals
---- Tjunc ----
         1068 world edges
         9480 edge points
         1353 edges added by tjunctions
            0 faces added by tjunctions
---- MakeFaceEdges ----
---- GrowRegions ----
Processing hull 1...
Processing hull 2...
---- WriteBSPFile ----
Wrote citydungeon.bsp
          243 planes             4860
         4314 vertexes          51768
          424 nodes             10176
          175 texinfo            7000
         3833 faces             76660
          774 clipnodes          6192
          185 leafs              5180
         3911 marksurfaces       7822
        16660 surfedges         66640
         8331 edges             33324
            9 textures          49360
              lightdata             0
              visdata               0
              entdata            4143

0.370 seconds elapsed
Peak memory usage: 14239114 (13.6M)
