---- qbsp / ericw-tools v0.18.1 ----
Input file: slaugther.map
Output file: slaugther.bsp

---- LoadMapFile ----
*** WARNING 06: No info_player_deathmatch entities in level
          776 faces
          129 brushes
          243 entities
           37 unique texnames
          310 texinfo

Opened WAD: C:/Users/jonfl/Desktop/QuakeGD/wads/prototype_1_2.wad
Opened WAD: C:/Users/jonfl/Desktop/SlaughterHouse/SlaughterHouse/wads2/cr8_set.wad
Opened WAD: C:/Users/jonfl/Desktop/SlaughterHouse/SlaughterHouse/wads2/tp-indust.wad
Opened WAD: C:/Users/jonfl/Desktop/SlaughterHouse/SlaughterHouse/wads2/deadmeat.wad
Opened WAD: C:/Users/jonfl/Desktop/SlaughterHouse/SlaughterHouse/wads2/gdtimes.wad
Opened WAD: C:/Users/jonfl/Desktop/SlaughterHouse/SlaughterHouse/wads2/indust_horror.wad
Opened WAD: C:/Users/jonfl/Desktop/SlaughterHouse/SlaughterHouse/wads/id1.wad
Processing hull 0...
---- Brush_LoadEntity ----
          109 brushes
          160 planes
---- CSGFaces ----
          656 brushfaces
          584 csgfaces
          526 mergedfaces
---- SolidBSP ----
          812 split nodes
          324 solid leafs
          488 empty leafs
            1 water leafs
            0 detail leafs
            0 detail illusionary leafs
            0 detail fence leafs
            0 illusionary visblocker leafs
         4123 leaffaces
         3999 nodefaces
---- Portalize ----
          489 vis leafs
          489 vis clusters
         1355 vis portals
---- FillOutside ----
*** WARNING 10: Reached occupant at (3096 1400 -168), no filling performed.
Leak file written to slaugther.pts
---- MakeFaceEdges ----
---- GrowRegions ----
Processing hull 1...
*** WARNING 10: Reached occupant at (3096 1400 -392), no filling performed.
Processing hull 2...
*** WARNING 10: Reached occupant at (3096 1400 -392), no filling performed.
*** WARNING 16: Texture __TB_empty not found
---- WriteBSPFile ----
Wrote slaugther.bsp
          466 planes             9320
         5986 vertexes          71832
          932 nodes             22368
          245 texinfo            9800
         4452 faces             89040
         1905 clipnodes         15240
          610 leafs             17080
         4576 marksurfaces       9152
        17801 surfedges         71204
        11107 edges             44428
           37 textures        1138552
              lightdata             0
              visdata               0
              entdata           19533

0.450 seconds elapsed
Peak memory usage: 15140168 (14.4M)
