---- qbsp / ericw-tools v0.18.1 ----
Input file: slaugther.map
Output file: slaugther.bsp

---- LoadMapFile ----
*** WARNING 06: No info_player_deathmatch entities in level
          818 faces
          136 brushes
          251 entities
           39 unique texnames
          328 texinfo

Opened WAD: C:/Users/jonfl/Desktop/QuakeGD/wads/prototype_1_2.wad
Opened WAD: C:/Users/jonfl/Desktop/SlaughterHouse/SlaughterHouse/wads2/cr8_set.wad
Opened WAD: C:/Users/jonfl/Desktop/SlaughterHouse/SlaughterHouse/wads2/tp-indust.wad
Opened WAD: C:/Users/jonfl/Desktop/SlaughterHouse/SlaughterHouse/wads2/deadmeat.wad
Opened WAD: C:/Users/jonfl/Desktop/SlaughterHouse/SlaughterHouse/wads2/gdtimes.wad
Opened WAD: C:/Users/jonfl/Desktop/SlaughterHouse/SlaughterHouse/wads2/indust_horror.wad
Opened WAD: C:/Users/jonfl/Desktop/SlaughterHouse/SlaughterHouse/wads/id1.wad
Processing hull 0...
---- Brush_LoadEntity ----
          114 brushes
          176 planes
---- CSGFaces ----
          686 brushfaces
          624 csgfaces
          564 mergedfaces
---- SolidBSP ----
          832 split nodes
          329 solid leafs
          503 empty leafs
            1 water leafs
            0 detail leafs
            0 detail illusionary leafs
            0 detail fence leafs
            0 illusionary visblocker leafs
         4199 leaffaces
         4046 nodefaces
---- Portalize ----
          504 vis leafs
          504 vis clusters
         1402 vis portals
---- FillOutside ----
*** WARNING 10: Reached occupant at (3416 1400 -168), no filling performed.
Leak file written to slaugther.pts
---- MakeFaceEdges ----
---- GrowRegions ----
Processing hull 1...
*** WARNING 10: Reached occupant at (3416 1400 -392), no filling performed.
Processing hull 2...
*** WARNING 10: Reached occupant at (3416 1400 -392), no filling performed.
*** WARNING 16: Texture __TB_empty not found
---- WriteBSPFile ----
Wrote slaugther.bsp
          522 planes            10440
         6080 vertexes          72960
          964 nodes             23136
          263 texinfo           10520
         4515 faces             90300
         1969 clipnodes         15752
          637 leafs             17836
         4668 marksurfaces       9336
        18053 surfedges         72212
        11278 edges             45112
           39 textures        1231120
              lightdata             0
              visdata               0
              entdata           19651

0.349 seconds elapsed
Peak memory usage: 15460048 (14.7M)
